<?xml version="1.0" encoding="UTF-8"?>

<!-- generated on 2025-06-23 00:52:16 by 
<configuration xmlns:xsi="http://www.w3.org/2001/XMLSchema-instance" xsi:noNamespaceSchemaLocation="http://sumo.dlr.de/xsd/Configuration.xsd">

    <input>
        <osm-files value="TRUE"/>
    </input>

    <output>
        <opendrive-output value="TRUE"/>
    </output>

    <projection>
        <proj value="+proj=tmerc"/>
    </projection>

    <processing>
        <geometry.remove value="true"/>
        <roundabouts.guess value="true"/>
        <edges.join value="true"/>
    </processing>

    <building_defaults>
        <default.lanewidth value="3.350000"/>
        <default.sidewalk-width value="2.800000"/>
    </building_defaults>

    <tls_building>
        <tls.group-signals value="true"/>
    </tls_building>

    <ramp_guessing>
        <ramps.guess value="true"/>
    </ramp_guessing>

    <edge_removal>
        <keep-edges.by-type value="highway.motorway,highway.motorway_link,highway.trunk,highway.trunk_link,highway.primary,highway.primary_link,highway.secondary,highway.secondary_link,highway.tertiary,highway.tertiary_link,highway.unclassified,highway.residential,"/>
    </edge_removal>

    <junctions>
        <junctions.join value="true"/>
    </junctions>

    <pedestrian>
        <sidewalks.guess value="true"/>
    </pedestrian>

    <formats>
        <osm.sidewalks value="true"/>
        <osm.crossings value="true"/>
    </formats>

    <report>
        <aggregate-warnings value="5"/>
    </report>

</configuration>
-->

<OpenDRIVE>
    <header revMajor="1" revMinor="4" name="" version="1.00" date="Mon Jun 23 00:52:16 2025" north="3900.28" south="0.00" east="2344.74" west="0.00">
        <geoReference>
 <![CDATA[
 +proj=tmerc
]]>
        </geoReference>
        <offset x="5233959.67" y="3519863.70" z="0.00" hdg="0"/>
    </header>
    <road name="Rua Doutor Francisco de Toledo" length="773.72586093" id="1450" junction="-1">
        <link>
            <predecessor elementType="junction" elementId="1"/>
            <successor elementType="junction" elementId="2"/>
        </link>
        <type s="0" type="town"/>
        <planView>
            <geometry s="0.00000000" x="91.92506454" y="3235.52484561" hdg="-2.03780719" length="22.05390459">
                <line/>
            </geometry>
            <geometry s="22.05390459" x="81.99597227" y="3215.83251629" hdg="-2.03780719" length="16.27971056">
                <paramPoly3 aU="-0.00000000" bU="12.19882259" cU="11.85658220" dU="-7.95667068" aV="0.00000000" bV="0.00000000" cV="5.01122027" dV="-2.69084665" pRange="normalized"/>
            </geometry>
            <geometry s="38.33361515" x="76.81991583" y="3200.41298929" hdg="-1.87727523" length="13.44187453">
                <paramPoly3 aU="-0.00000000" bU="10.08074153" cU="10.08441890" dU="-6.72714579" aV="0.00000000" bV="0.00000000" cV="0.34435672" dV="-0.06162039" pRange="normalized"/>
            </geometry>
            <geometry s="51.77548967" x="73.03518114" y="3187.51585935" hdg="-1.82727273" length="18.01227632">
                <paramPoly3 aU="-0.00000000" bU="13.50882960" cU="13.50295795" dU="-9.00422172" aV="0.00000000" bV="-0.00000000" cV="0.74084405" dV="-0.35157262" pRange="normalized"/>
            </geometry>
            <geometry s="69.78776600" x="68.84367183" y="3169.99857620" hdg="-1.79566072" length="16.14909174">
                <paramPoly3 aU="-0.00000000" bU="12.10884513" cU="12.14960178" dU="-8.11432443" aV="0.00000000" bV="0.00000000" cV="-0.48838202" dV="0.66846575" pRange="normalized"/>
            </geometry>
            <geometry s="85.93685774" x="65.41949957" y="3154.22073842" hdg="-1.71060930" length="9.20582936">
                <paramPoly3 aU="-0.00000000" bU="6.89906062" cU="6.74613412" dU="-4.52400466" aV="0.00000000" bV="-0.00000000" cV="2.53004262" dV="-1.33804977" pRange="normalized"/>
            </geometry>
            <geometry s="95.14268710" x="65.32875100" y="3145.02243857" hdg="-1.55841690" length="9.24541532">
                <paramPoly3 aU="0.00000000" bU="6.93304751" cU="6.94424629" dU="-4.63549513" aV="0.00000000" bV="0.00000000" cV="0.11465948" dV="0.08994894" pRange="normalized"/>
            </geometry>
            <geometry s="104.38810241" x="65.64774901" y="3135.78388092" hdg="-1.48635652" length="8.83713923">
                <paramPoly3 aU="0.00000000" bU="6.62713830" cU="6.59912859" dU="-4.40213270" aV="0.00000000" bV="-0.00000000" cV="1.05555816" dV="-0.59424428" pRange="normalized"/>
            </geometry>
            <geometry s="113.22524164" x="66.85164232" y="3127.03009342" hdg="-1.43678489" length="11.18594077">
                <paramPoly3 aU="0.00000000" bU="8.38798737" cU="8.40512803" dU="-5.60915693" aV="0.00000000" bV="0.00000000" cV="-0.60761859" dV="0.58411895" pRange="normalized"/>
            </geometry>
            <geometry s="124.41118241" x="68.32264961" y="3115.94327166" hdg="-1.37270666" length="17.39695840">
                <paramPoly3 aU="0.00000000" bU="13.04623636" cU="13.02596312" dU="-8.69294834" aV="0.00000000" bV="0.00000000" cV="1.38118101" dV="-0.64157162" pRange="normalized"/>
            </geometry>
            <geometry s="141.80814081" x="72.46797498" y="3099.04943640" hdg="-1.30845642" length="10.61201802">
                <paramPoly3 aU="0.00000000" bU="7.95399027" cU="8.01805105" dU="-5.37345131" aV="0.00000000" bV="-0.00000000" cV="-0.02132477" dV="0.39909432" pRange="normalized"/>
            </geometry>
            <geometry s="152.42015883" x="75.58146948" y="3088.91143995" hdg="-1.16277765" length="19.02836778">
                <paramPoly3 aU="0.00000000" bU="14.26700103" cU="14.24112922" dU="-9.52115526" aV="0.00000000" bV="0.00000000" cV="1.97424060" dV="-0.80947445" pRange="normalized"/>
            </geometry>
            <geometry s="171.44852661" x="84.18448756" y="3071.94529780" hdg="-1.05603143" length="14.27520728">
                <paramPoly3 aU="0.00000000" bU="10.70156619" cU="10.71559712" dU="-7.17463966" aV="0.00000000" bV="0.00000000" cV="1.18871045" dV="-0.32390586" pRange="normalized"/>
            </geometry>
            <geometry s="185.72373389" x="91.94924570" y="3059.97425366" hdg="-0.92429582" length="23.79474510">
                <paramPoly3 aU="0.00000000" bU="17.83938314" cU="17.89771453" dU="-11.97285619" aV="0.00000000" bV="0.00000000" cV="0.94810280" dV="0.06541126" pRange="normalized"/>
            </geometry>
            <geometry s="209.51847899" x="107.07373278" y="3041.61625064" hdg="-0.80673193" length="202.17132806">
                <line/>
            </geometry>
            <geometry s="411.68980705" x="246.94834474" y="2895.64248993" hdg="-0.80673193" length="27.77988623">
                <paramPoly3 aU="0.00000000" bU="20.83489227" cU="20.83489227" dU="-13.89007182" aV="0.00000000" bV="0.00000000" cV="0.13400387" dV="-0.04466842" pRange="normalized"/>
            </geometry>
            <geometry s="439.46969327" x="266.23256870" y="2875.64651220" hdg="-0.80030025" length="205.91827695">
                <line/>
            </geometry>
            <geometry s="645.38797023" x="409.65285527" y="2727.88671326" hdg="-0.80030025" length="27.77836118">
                <paramPoly3 aU="0.00000000" bU="20.83344821" cU="20.83344798" dU="-13.89103414" aV="0.00000000" bV="-0.00000000" cV="-0.50856861" dV="0.16954812" pRange="normalized"/>
            </geometry>
            <geometry s="673.16633141" x="428.75523198" y="2707.71959517" hdg="-0.82471020" length="71.40419408">
                <line/>
            </geometry>
            <geometry s="744.57052549" x="477.22224330" y="2655.28384643" hdg="-0.82471020" length="7.85627151">
                <paramPoly3 aU="0.00000000" bU="5.89201376" cU="5.89433858" dU="-3.93033401" aV="0.00000000" bV="0.00000000" cV="0.16730705" dV="-0.16670559" pRange="normalized"/>
            </geometry>
            <geometry s="752.42679700" x="482.55511306" y="2649.51517896" hdg="-0.85280321" length="21.29906393">
                <line/>
            </geometry>
        </planView>
        <elevationProfile>
            <elevation s="0" a="0.00" b="0" c="0" d="0"/>
        </elevationProfile>
        <lateralProfile/>
        <lanes>
            <laneSection s="0">
                <center>
                    <lane id="0" type="none" level="true">
                        <link/>
                        <roadMark sOffset="0" type="solid" weight="standard" color="standard" width="0.13" laneChange="none"/>
                    </lane>
                </center>
                <right>
                    <lane id="-1" type="driving" level="true">
                        <link/>
                        <width sOffset="0" a="3.35" b="0" c="0" d="0"/>
                        <roadMark sOffset="0" type="solid" weight="standard" color="standard" width="0.13" laneChange="none"/>
                        <speed sOffset="0" max="27.78"/>
                    </lane>
                 </right>
            </laneSection>
        </lanes>
        <objects/>
    </road>
    <road name="Avenida Érico Veríssimo" length="207.03052721" id="1451" junction="-1">
        <link>
            <predecessor elementType="junction" elementId="3"/>
            <successor elementType="junction" elementId="4"/>
        </link>
        <type s="0" type="town"/>
        <planView>
            <geometry s="0.00000000" x="506.60996222" y="3277.95367784" hdg="1.00136524" length="60.46464758">
                <line/>
            </geometry>
            <geometry s="60.46464758" x="539.20965787" y="3328.87747827" hdg="1.00136524" length="5.06262083">
                <paramPoly3 aU="0.00000000" bU="3.79655116" cU="3.78197116" dU="-2.52310199" aV="0.00000000" bV="0.00000000" cV="-0.57629784" dV="0.31695275" pRange="normalized"/>
            </geometry>
            <geometry s="65.52726841" x="542.15372533" y="3332.99536624" hdg="0.94820318" length="35.73687037">
                <line/>
            </geometry>
            <geometry s="101.26413878" x="562.99345660" y="3362.02689229" hdg="0.94820318" length="22.19589852">
                <paramPoly3 aU="0.00000000" bU="16.64514538" cU="16.59187159" dU="-11.06993108" aV="0.00000000" bV="0.00000000" cV="-2.31820785" dV="1.23517894" pRange="normalized"/>
            </geometry>
            <geometry s="123.46003730" x="576.79987248" y="3379.40318444" hdg="0.89224904" length="3.80047524">
                <paramPoly3 aU="0.00000000" bU="2.85015494" cU="2.84273307" dU="-1.89598237" aV="0.00000000" bV="-0.00000000" cV="-0.35618224" dV="0.19782308" pRange="normalized"/>
            </geometry>
            <geometry s="127.26051254" x="579.30632908" y="3382.25962372" hdg="0.85052157" length="22.21999997">
                <paramPoly3 aU="0.00000000" bU="16.66499998" cU="16.66499998" dU="-11.10999999" aV="0.00000000" bV="0.00000000" cV="0.00002039" dV="-0.00018836" pRange="normalized"/>
            </geometry>
            <geometry s="149.48051251" x="593.96257200" y="3398.96060999" hdg="0.85049011" length="19.06523807">
                <paramPoly3 aU="0.00000000" bU="14.29836198" cU="14.30533582" dU="-9.53921517" aV="0.00000000" bV="0.00000000" cV="0.44492790" dV="-0.44545900" pRange="normalized"/>
            </geometry>
            <geometry s="168.54575058" x="606.53818714" y="3413.28919687" hdg="0.81925620" length="17.60659118">
                <paramPoly3 aU="0.00000000" bU="13.20433104" cU="13.18167618" dU="-8.79028388" aV="0.00000000" bV="0.00000000" cV="-1.33953188" dV="0.74470113" pRange="normalized"/>
            </geometry>
            <geometry s="186.15234177" x="618.98653456" y="3425.73917478" hdg="0.78555175" length="20.87818545">
                <line/>
            </geometry>
        </planView>
        <elevationProfile>
            <elevation s="0" a="0.00" b="0" c="0" d="0"/>
        </elevationProfile>
        <lateralProfile/>
        <lanes>
            <laneSection s="0">
                <center>
                    <lane id="0" type="none" level="true">
                        <link/>
                        <roadMark sOffset="0" type="solid" weight="standard" color="standard" width="0.13" laneChange="none"/>
                    </lane>
                </center>
                <right>
                    <lane id="-1" type="driving" level="true">
                        <link/>
                        <width sOffset="0" a="3.35" b="0" c="0" d="0"/>
                        <roadMark sOffset="0" type="solid" weight="standard" color="standard" width="0.13" laneChange="none"/>
                        <speed sOffset="0" max="22.22"/>
                    </lane>
                 </right>
            </laneSection>
        </lanes>
        <objects/>
    </road>
    <road name="Avenida Érico Veríssimo" length="286.79973961" id="1452" junction="-1">
        <link>
            <predecessor elementType="junction" elementId="4"/>
            <successor elementType="junction" elementId="5"/>
        </link>
        <type s="0" type="town"/>
        <planView>
            <geometry s="0.00000000" x="645.23560945" y="3451.94225009" hdg="0.77993197" length="0.20000000">
                <line/>
            </geometry>
            <geometry s="0.20000000" x="645.37780173" y="3452.08289630" hdg="0.77993197" length="17.09146876">
                <paramPoly3 aU="0.00000000" bU="12.81859616" cU="12.81846219" dU="-8.54567036" aV="0.00000000" bV="0.00000000" cV="-0.10328320" dV="0.05314101" pRange="normalized"/>
            </geometry>
            <geometry s="17.29146876" x="657.56438012" y="3464.06644189" hdg="0.77625422" length="15.21887934">
                <paramPoly3 aU="0.00000000" bU="11.41415921" cU="11.41414560" dU="-7.60943118" aV="0.00000000" bV="0.00000000" cV="-0.03085554" dV="0.01813983" pRange="normalized"/>
            </geometry>
            <geometry s="32.51034811" x="668.43260768" y="3474.71988763" hdg="0.77561540" length="22.21999882">
                <paramPoly3 aU="0.00000000" bU="16.66499908" cU="16.66499911" dU="-11.10999962" aV="0.00000000" bV="-0.00000000" cV="0.00437975" dV="-0.00138617" pRange="normalized"/>
            </geometry>
            <geometry s="54.73034693" x="684.29537495" y="3490.27948146" hdg="0.77589149" length="16.52646161">
                <paramPoly3 aU="0.00000000" bU="12.39484617" cU="12.39484589" dU="-8.26323080" aV="0.00000000" bV="0.00000000" cV="0.00551693" dV="-0.00237585" pRange="normalized"/>
            </geometry>
            <geometry s="71.25680854" x="696.08971288" y="3501.85607529" hdg="0.77620665" length="20.07668797">
                <paramPoly3 aU="0.00000000" bU="15.05738651" cU="15.05896125" dU="-10.03983252" aV="0.00000000" bV="0.00000000" cV="0.22398656" dV="-0.22191922" pRange="normalized"/>
            </geometry>
            <geometry s="91.33349650" x="710.41438806" y="3515.92270777" hdg="0.76174251" length="46.51969071">
                <line/>
            </geometry>
            <geometry s="137.85318722" x="744.07763929" y="3548.02982755" hdg="0.76174251" length="7.21211615">
                <paramPoly3 aU="0.00000000" bU="5.40903245" cU="5.40728278" dU="-3.60485572" aV="0.00000000" bV="0.00000000" cV="0.27942787" dV="-0.18766866" pRange="normalized"/>
            </geometry>
            <geometry s="145.06530336" x="749.23276921" y="3553.07345755" hdg="0.76097523" length="2.36660279">
                <paramPoly3 aU="0.00000000" bU="1.77468829" cU="1.77373572" dU="-1.18417397" aV="0.00000000" bV="0.00000000" cV="-0.15808426" dV="0.06079188" pRange="normalized"/>
            </geometry>
            <geometry s="147.43190615" x="751.01196906" y="3554.63345497" hdg="0.68551414" length="22.60515937">
                <line/>
            </geometry>
            <geometry s="170.03706552" x="768.51047970" y="3568.94412776" hdg="0.68551414" length="22.21994885">
                <paramPoly3 aU="0.00000000" bU="16.66495659" cU="16.66487215" dU="-11.10994450" aV="0.00000000" bV="-0.00000000" cV="0.09762481" dV="-0.04690755" pRange="normalized"/>
            </geometry>
            <geometry s="192.25701437" x="785.67864366" y="3583.05015391" hdg="0.68878610" length="17.00297097">
                <paramPoly3 aU="0.00000000" bU="12.75192533" cU="12.75531447" dU="-8.50468691" aV="0.00000000" bV="0.00000000" cV="0.36178055" dV="-0.33979511" pRange="normalized"/>
            </geometry>
            <geometry s="209.25998533" x="798.79094898" y="3593.87395811" hdg="0.66558562" length="18.04245173">
                <paramPoly3 aU="0.00000000" bU="13.52411043" cU="13.62956281" dU="-9.12633468" aV="0.00000000" bV="0.00000000" cV="0.54746451" dV="-0.96387601" pRange="normalized"/>
            </geometry>
            <geometry s="227.30243707" x="813.22758984" y="3604.67866701" hdg="0.53234014" length="32.43483302">
                <line/>
            </geometry>
            <geometry s="259.73727009" x="841.17414554" y="3621.14100032" hdg="0.53234014" length="4.17885903">
                <paramPoly3 aU="0.00000000" bU="3.13366450" cU="3.13935727" dU="-2.09480650" aV="0.00000000" bV="0.00000000" cV="0.20649639" dV="-0.20066548" pRange="normalized"/>
            </geometry>
            <geometry s="263.91612912" x="844.77122697" y="3623.26668187" hdg="0.47198956" length="22.88361050">
                <line/>
            </geometry>
        </planView>
        <elevationProfile>
            <elevation s="0" a="0.00" b="0" c="0" d="0"/>
        </elevationProfile>
        <lateralProfile/>
        <lanes>
            <laneSection s="0">
                <center>
                    <lane id="0" type="none" level="true">
                        <link/>
                        <roadMark sOffset="0" type="solid" weight="standard" color="standard" width="0.13" laneChange="none"/>
                    </lane>
                </center>
                <right>
                    <lane id="-1" type="driving" level="true">
                        <link/>
                        <width sOffset="0" a="3.35" b="0" c="0" d="0"/>
                        <roadMark sOffset="0" type="solid" weight="standard" color="standard" width="0.13" laneChange="none"/>
                        <speed sOffset="0" max="22.22"/>
                    </lane>
                 </right>
            </laneSection>
        </lanes>
        <objects/>
    </road>
    <road name="Rua Oscar Niemeyer" length="463.68321311" id="1453" junction="-1">
        <link>
            <predecessor elementType="junction" elementId="6"/>
            <successor elementType="junction" elementId="7"/>
        </link>
        <type s="0" type="town"/>
        <planView>
            <geometry s="0.00000000" x="2142.23297078" y="3616.59517707" hdg="-3.03595552" length="105.24687613">
                <line/>
            </geometry>
            <geometry s="105.24687613" x="2037.57278441" y="3605.49786552" hdg="-3.03595552" length="13.88999892">
                <paramPoly3 aU="-0.00000000" bU="10.41749898" cU="10.41749898" dU="-6.94500068" aV="0.00000000" bV="-0.00000000" cV="-0.00922690" dV="0.00307563" pRange="normalized"/>
            </geometry>
            <geometry s="119.13687505" x="2023.75956715" y="3604.03941050" hdg="-3.03684123" length="103.36020957">
                <line/>
            </geometry>
            <geometry s="222.49708462" x="1920.96591777" y="3593.23207177" hdg="-3.03684123" length="13.70102621">
                <paramPoly3 aU="-0.00000000" bU="10.23962862" cU="10.23365827" dU="-7.05356121" aV="0.00000000" bV="-0.00000000" cV="3.83258139" dV="-1.32042049" pRange="normalized"/>
            </geometry>
            <geometry s="236.19811083" x="1907.88242261" y="3589.33051517" hdg="-2.66672668" length="104.64908544">
                <line/>
            </geometry>
            <geometry s="340.84719627" x="1814.81233895" y="3541.48293830" hdg="-2.66672668" length="13.88860375">
                <paramPoly3 aU="-0.00000000" bU="10.41633156" cU="10.41368198" dU="-6.94312920" aV="0.00000000" bV="-0.00000000" cV="0.41870632" dV="-0.21069942" pRange="normalized"/>
            </geometry>
            <geometry s="354.73580003" x="1802.55708746" y="3534.94859562" hdg="-2.64701459" length="6.42158926">
                <paramPoly3 aU="-0.00000000" bU="4.81474329" cU="4.83449113" dU="-3.22991346" aV="0.00000000" bV="-0.00000000" cV="-0.24934279" dV="0.31509810" pRange="normalized"/>
            </geometry>
            <geometry s="361.15738929" x="1796.93821119" y="3531.84372290" hdg="-2.55412248" length="13.79135699">
                <paramPoly3 aU="-0.00000000" bU="10.34121189" cU="10.35433054" dU="-6.91744891" aV="0.00000000" bV="-0.00000000" cV="0.64039079" dV="-0.11041553" pRange="normalized"/>
            </geometry>
            <geometry s="374.94874628" x="1785.76381941" y="3523.76599405" hdg="-2.46217249" length="10.93250899">
                <paramPoly3 aU="-0.00000000" bU="8.18821104" cU="8.31161222" dU="-5.60713811" aV="0.00000000" bV="0.00000000" cV="0.42149221" dV="0.31588244" pRange="normalized"/>
            </geometry>
            <geometry s="385.88125527" x="1777.75331811" y="3516.34803073" hdg="-2.24170674" length="12.80393237">
                <paramPoly3 aU="-0.00000000" bU="9.59633578" cU="9.35265159" dU="-6.26234302" aV="0.00000000" bV="0.00000000" cV="3.73784735" dV="-2.07531707" pRange="normalized"/>
            </geometry>
            <geometry s="398.68518764" x="1771.16822661" y="3505.37754661" hdg="-2.11110445" length="64.99802547">
                <line/>
            </geometry>
        </planView>
        <elevationProfile>
            <elevation s="0" a="0.00" b="0" c="0" d="0"/>
        </elevationProfile>
        <lateralProfile/>
        <lanes>
            <laneSection s="0">
                <center>
                    <lane id="0" type="none" level="true">
                        <link/>
                        <roadMark sOffset="0" type="solid" weight="standard" color="standard" width="0.13" laneChange="none"/>
                    </lane>
                </center>
                <right>
                    <lane id="-1" type="driving" level="true">
                        <link/>
                        <width sOffset="0" a="3.35" b="0" c="0" d="0"/>
                        <roadMark sOffset="0" type="solid" weight="standard" color="standard" width="0.13" laneChange="none"/>
                        <speed sOffset="0" max="13.89"/>
                    </lane>
                    <lane id="-2" type="sidewalk" level="true">
                        <link/>
                        <width sOffset="0" a="2.80" b="0" c="0" d="0"/>
                        <roadMark sOffset="0" type="solid" weight="standard" color="standard" width="0.13" laneChange="none"/>
                        <speed sOffset="0" max="13.89"/>
                    </lane>
                 </right>
            </laneSection>
        </lanes>
        <objects/>
    </road>
    <road name="Rua Oscar Niemeyer" length="200.17222918" id="1454" junction="-1">
        <link>
            <predecessor elementType="junction" elementId="8"/>
            <successor elementType="junction" elementId="6"/>
        </link>
        <type s="0" type="town"/>
        <planView>
            <geometry s="0.00000000" x="2344.73759168" y="3642.41151392" hdg="-2.95755985" length="7.73658859">
                <line/>
            </geometry>
            <geometry s="7.73658859" x="2337.13164543" y="3640.99575104" hdg="-2.95755985" length="13.88542704">
                <paramPoly3 aU="-0.00000000" bU="10.41317042" cU="10.41316683" dU="-6.94788039" aV="0.00000000" bV="-0.00000000" cV="-0.60062608" dV="0.20037504" pRange="normalized"/>
            </geometry>
            <geometry s="21.62201563" x="2323.41430006" y="3638.84954460" hdg="-3.01522334" length="147.51836404">
                <line/>
            </geometry>
            <geometry s="169.14037967" x="2177.07224479" y="3620.25732609" hdg="-3.01522334" length="13.88833753">
                <paramPoly3 aU="-0.00000000" bU="10.41613693" cU="10.41226367" dU="-6.94203520" aV="0.00000000" bV="-0.00000000" cV="-0.49265622" dV="0.26799773" pRange="normalized"/>
            </geometry>
            <geometry s="183.02871720" x="2163.26829458" y="3618.73004943" hdg="-3.03263175" length="1.14440781">
                <paramPoly3 aU="-0.00000000" bU="0.85829861" cU="0.85795489" dU="-0.57198316" aV="0.00000000" bV="-0.00000000" cV="-0.04305322" dV="0.02595029" pRange="normalized"/>
            </geometry>
            <geometry s="184.17312501" x="2162.12895032" y="3618.62261677" hdg="-3.04225042" length="13.88978881">
                <paramPoly3 aU="-0.00000000" bU="10.41732685" cU="10.41752335" dU="-6.94508240" aV="0.00000000" bV="0.00000000" cV="-0.04634666" dV="0.05244260" pRange="normalized"/>
            </geometry>
            <geometry s="198.06291382" x="2148.30826900" y="3617.23897878" hdg="-3.03604586" length="2.10931536">
                <line/>
            </geometry>
        </planView>
        <elevationProfile>
            <elevation s="0" a="0.00" b="0" c="0" d="0"/>
        </elevationProfile>
        <lateralProfile/>
        <lanes>
            <laneSection s="0">
                <center>
                    <lane id="0" type="none" level="true">
                        <link/>
                        <roadMark sOffset="0" type="solid" weight="standard" color="standard" width="0.13" laneChange="none"/>
                    </lane>
                </center>
                <right>
                    <lane id="-1" type="driving" level="true">
                        <link/>
                        <width sOffset="0" a="3.35" b="0" c="0" d="0"/>
                        <roadMark sOffset="0" type="solid" weight="standard" color="standard" width="0.13" laneChange="none"/>
                        <speed sOffset="0" max="13.89"/>
                    </lane>
                    <lane id="-2" type="sidewalk" level="true">
                        <link/>
                        <width sOffset="0" a="2.80" b="0" c="0" d="0"/>
                        <roadMark sOffset="0" type="solid" weight="standard" color="standard" width="0.13" laneChange="none"/>
                        <speed sOffset="0" max="13.89"/>
                    </lane>
                 </right>
            </laneSection>
        </lanes>
        <objects/>
    </road>
    <road name="Avenida Bertrand Russell" length="183.72492360" id="1455" junction="-1">
        <link>
            <predecessor elementType="junction" elementId="9"/>
            <successor elementType="junction" elementId="10"/>
        </link>
        <type s="0" type="town"/>
        <planView>
            <geometry s="0.00000000" x="685.92750265" y="3361.68565087" hdg="0.33704067" length="0.20000000">
                <line/>
            </geometry>
            <geometry s="0.20000000" x="686.11625014" y="3361.75179001" hdg="0.33704067" length="12.83737852">
                <paramPoly3 aU="0.00000000" bU="9.62803379" cU="9.62803064" dU="-6.41868753" aV="0.00000000" bV="0.00000000" cV="-0.01351936" dV="0.00733521" pRange="normalized"/>
            </geometry>
            <geometry s="13.03737852" x="698.23340837" y="3365.99121926" hdg="0.33651791" length="15.54521039">
                <paramPoly3 aU="0.00000000" bU="11.65890038" cU="11.65899260" dU="-7.77269248" aV="0.00000000" bV="0.00000000" cV="0.04479861" dV="-0.04532523" pRange="normalized"/>
            </geometry>
            <geometry s="28.58258891" x="712.90685524" y="3371.12378350" hdg="0.33253996" length="22.21951162">
                <paramPoly3 aU="0.00000000" bU="16.66462557" cU="16.66452053" dU="-11.10972993" aV="0.00000000" bV="-0.00000000" cV="-0.11352886" dV="0.05221751" pRange="normalized"/>
            </geometry>
            <geometry s="50.80210052" x="733.92902297" y="3378.31924583" hdg="0.32831512" length="6.21778020">
                <paramPoly3 aU="0.00000000" bU="4.66250392" cU="4.67360773" dU="-3.11952504" aV="0.00000000" bV="0.00000000" cV="0.22758156" dV="-0.26014399" pRange="normalized"/>
            </geometry>
            <geometry s="57.01988073" x="739.82406260" y="3380.29295230" hdg="0.25849571" length="22.15125578">
                <paramPoly3 aU="0.00000000" bU="16.60804367" cU="16.68147414" dU="-11.14909435" aV="0.00000000" bV="0.00000000" cV="0.46796542" dV="-0.86916815" pRange="normalized"/>
            </geometry>
            <geometry s="79.17113651" x="761.33144202" y="3385.56475894" hdg="0.15767657" length="45.86841837">
                <line/>
            </geometry>
            <geometry s="125.03955488" x="806.63085274" y="3392.76720241" hdg="0.15767657" length="22.20369274">
                <paramPoly3 aU="0.00000000" bU="16.64956344" cU="16.64953487" dU="-11.12024340" aV="0.00000000" bV="0.00000000" cV="-1.43424040" dV="0.47896499" pRange="normalized"/>
            </geometry>
            <geometry s="147.24324762" x="828.68457534" y="3395.30639037" hdg="0.07158688" length="22.73561584">
                <line/>
            </geometry>
            <geometry s="169.97886346" x="851.36195967" y="3396.93257236" hdg="0.07158688" length="13.54606014">
                <paramPoly3 aU="0.00000000" bU="10.15954498" cU="10.15954657" dU="-6.77303166" aV="0.00000000" bV="-0.00000000" cV="0.00170832" dV="-0.00316782" pRange="normalized"/>
            </geometry>
            <geometry s="183.52492360" x="864.87342916" y="3397.90000870" hdg="0.07098775" length="0.20000000">
                <line/>
            </geometry>
        </planView>
        <elevationProfile>
            <elevation s="0" a="0.00" b="0" c="0" d="0"/>
        </elevationProfile>
        <lateralProfile/>
        <lanes>
            <laneSection s="0">
                <center>
                    <lane id="0" type="none" level="true">
                        <link/>